Version 4
SHEET 1 1876 964
WIRE 1408 -16 784 -16
WIRE 256 0 0 0
WIRE 496 0 256 0
WIRE 784 0 784 -16
WIRE 784 0 496 0
WIRE 1408 48 1408 -16
WIRE 160 64 128 64
WIRE 608 64 240 64
WIRE 784 64 784 0
WIRE 608 80 608 64
WIRE 752 80 608 80
WIRE 0 96 0 0
WIRE 1040 96 816 96
WIRE 752 112 736 112
WIRE 128 144 128 64
WIRE 160 144 128 144
WIRE 304 144 240 144
WIRE 336 144 304 144
WIRE 432 144 416 144
WIRE 1408 144 1408 112
WIRE 496 176 496 0
WIRE 0 192 0 176
WIRE 0 192 -112 192
WIRE 256 192 256 0
WIRE 432 192 432 144
WIRE 464 192 432 192
WIRE 736 192 736 112
WIRE 880 192 736 192
WIRE 1040 192 1040 96
WIRE 1072 192 1040 192
WIRE 1184 192 1152 192
WIRE 1344 192 1184 192
WIRE 224 208 176 208
WIRE 608 208 608 80
WIRE 608 208 528 208
WIRE 688 208 608 208
WIRE -112 224 -112 192
WIRE 304 224 304 144
WIRE 304 224 288 224
WIRE 464 224 384 224
WIRE 128 240 128 144
WIRE 224 240 128 240
WIRE 608 240 608 208
WIRE 688 240 688 208
WIRE 0 256 0 192
WIRE 1408 272 1408 240
WIRE 1040 288 1040 192
WIRE 1056 288 1040 288
WIRE 1184 288 1184 192
WIRE 1184 288 1120 288
WIRE 176 304 176 208
WIRE 1184 304 1184 288
WIRE 384 320 384 224
WIRE 1184 320 1184 304
WIRE 432 336 432 192
WIRE 608 336 608 304
WIRE 608 336 432 336
WIRE 688 336 688 320
WIRE 688 336 608 336
WIRE 1408 368 1408 352
WIRE 0 416 0 336
WIRE 256 416 256 256
WIRE 256 416 0 416
WIRE 496 416 496 240
WIRE 496 416 256 416
WIRE 784 416 784 128
WIRE 784 416 496 416
WIRE 1184 448 1184 368
WIRE 1264 448 1184 448
WIRE 1408 448 1264 448
WIRE 1264 480 1264 448
WIRE 720 544 480 544
WIRE 720 592 720 544
WIRE 880 592 880 192
WIRE 1008 592 880 592
WIRE 1232 592 1072 592
WIRE 480 608 480 544
WIRE 720 704 720 672
WIRE 896 704 720 704
WIRE 928 704 896 704
WIRE 1024 704 1008 704
WIRE 1056 704 1024 704
WIRE 1232 704 1232 592
WIRE 1232 704 1136 704
WIRE 896 720 896 704
WIRE 1232 720 1232 704
WIRE 720 736 720 704
WIRE 1024 736 1024 704
WIRE 1024 736 992 736
WIRE 1024 752 1024 736
WIRE 992 768 992 736
WIRE 1008 768 992 768
WIRE 1008 800 976 800
WIRE 1232 816 1232 784
WIRE 976 832 976 800
WIRE 1024 832 1024 816
WIRE 1024 832 976 832
WIRE 480 944 480 688
WIRE 720 944 720 816
WIRE 896 944 896 816
WIRE 1024 944 1024 832
WIRE 1232 944 1232 880
FLAG -112 224 0
FLAG 176 304 0
FLAG 384 320 0
FLAG 1264 480 0
FLAG 1232 944 0
FLAG 1024 944 0
FLAG 896 944 0
FLAG 720 944 0
FLAG 480 944 0
SYMBOL voltage 0 80 R0
WINDOW 123 0 0 Left 2
WINDOW 39 0 0 Left 2
SYMATTR InstName V1
SYMATTR Value 9
SYMBOL voltage 0 240 R0
WINDOW 123 0 0 Left 2
WINDOW 39 0 0 Left 2
SYMATTR InstName V2
SYMATTR Value 9
SYMBOL cap 592 240 R0
SYMATTR InstName C1
SYMATTR Value 0.1µ
SYMBOL res 672 224 R0
SYMATTR InstName R1
SYMATTR Value 1meg
SYMBOL res 256 48 R90
WINDOW 0 0 56 VBottom 2
WINDOW 3 32 56 VTop 2
SYMATTR InstName R2
SYMATTR Value 60k
SYMBOL res 256 128 R90
WINDOW 0 0 56 VBottom 2
WINDOW 3 32 56 VTop 2
SYMATTR InstName R3
SYMATTR Value 90k
SYMBOL res 432 128 R90
WINDOW 0 0 56 VBottom 2
WINDOW 3 32 56 VTop 2
SYMATTR InstName R4
SYMATTR Value 5000
SYMBOL Misc\\signal 480 592 R0
WINDOW 123 0 0 Left 2
WINDOW 39 0 0 Left 2
SYMATTR InstName V3
SYMATTR Value SINE(0 100kV 50)
SYMBOL npn 1344 144 R0
SYMATTR InstName Q1
SYMATTR Value BC547C
SYMBOL res 1168 176 R90
WINDOW 0 0 56 VBottom 2
WINDOW 3 32 56 VTop 2
SYMATTR InstName R6
SYMATTR Value 120
SYMBOL res 1392 352 R0
SYMATTR InstName R7
SYMATTR Value 50
SYMBOL zener 1200 368 R180
WINDOW 0 24 64 Left 2
WINDOW 3 24 0 Left 2
SYMATTR InstName D1
SYMATTR Value BZX84C6V2L
SYMBOL cap 1120 272 R90
WINDOW 0 0 32 VBottom 2
WINDOW 3 32 32 VTop 2
SYMATTR InstName C2
SYMATTR Value 10n
SYMBOL TL074 256 160 R0
SYMATTR InstName U1
SYMBOL TL074 496 144 R0
SYMATTR InstName U2
SYMBOL TL074 784 32 R0
SYMATTR InstName U3
SYMBOL LED 1392 48 R0
SYMATTR InstName D3
SYMATTR Value QTLP690C
SYMBOL res 1392 256 R0
SYMATTR InstName R5
SYMATTR Value 68R
SYMBOL res 704 576 R0
SYMATTR InstName R8
SYMATTR Value 280MegR
SYMBOL res 704 720 R0
SYMATTR InstName R9
SYMATTR Value 20kR
SYMBOL res 1024 688 R90
WINDOW 0 0 56 VBottom 2
WINDOW 3 32 56 VTop 2
SYMATTR InstName R11
SYMATTR Value 1kR
SYMBOL res 1152 688 R90
WINDOW 0 0 56 VBottom 2
WINDOW 3 32 56 VTop 2
SYMATTR InstName R12
SYMATTR Value 1kR
SYMBOL zener 1216 720 R0
SYMATTR InstName D2
SYMATTR Value EDZV7_5B
SYMBOL zener 1248 880 R180
WINDOW 0 24 64 Left 2
WINDOW 3 24 0 Left 2
SYMATTR InstName D4
SYMATTR Value EDZV7_5B
SYMBOL SpecialFunctions\\varistor 1040 720 R0
WINDOW 3 0 60 Left 2
SYMATTR InstName A1
SYMATTR Value 25
SYMBOL Misc\\neonbulb 896 768 R0
SYMATTR InstName U4
SYMBOL cap 1072 576 R90
WINDOW 0 0 32 VBottom 2
WINDOW 3 32 32 VTop 2
SYMATTR InstName C3
SYMATTR Value 100nF
TEXT -368 424 Left 2 !.tran 0 0.024 0.02
TEXT -216 576 Left 2 !;.step param R 0.1 100 10
