Version 4
SHEET 1 1568 680
WIRE 1408 -16 784 -16
WIRE 256 0 0 0
WIRE 496 0 256 0
WIRE 784 0 784 -16
WIRE 784 0 496 0
WIRE 1408 48 1408 -16
WIRE 160 64 128 64
WIRE 608 64 240 64
WIRE 784 64 784 0
WIRE 608 80 608 64
WIRE 752 80 608 80
WIRE 0 96 0 0
WIRE 1040 96 816 96
WIRE 752 112 736 112
WIRE 128 144 128 64
WIRE 160 144 128 144
WIRE 304 144 240 144
WIRE 336 144 304 144
WIRE 432 144 416 144
WIRE 1408 144 1408 112
WIRE 496 176 496 0
WIRE 0 192 0 176
WIRE 0 192 -112 192
WIRE 256 192 256 0
WIRE 432 192 432 144
WIRE 464 192 432 192
WIRE 736 192 736 112
WIRE 880 192 736 192
WIRE 1040 192 1040 96
WIRE 1072 192 1040 192
WIRE 1184 192 1152 192
WIRE 1344 192 1184 192
WIRE 224 208 176 208
WIRE 608 208 608 80
WIRE 608 208 528 208
WIRE 688 208 608 208
WIRE -112 224 -112 192
WIRE 304 224 304 144
WIRE 304 224 288 224
WIRE 464 224 384 224
WIRE 880 224 880 192
WIRE 128 240 128 144
WIRE 224 240 128 240
WIRE 608 240 608 208
WIRE 688 240 688 208
WIRE 0 256 0 192
WIRE 1040 288 1040 192
WIRE 1056 288 1040 288
WIRE 1184 288 1184 192
WIRE 1184 288 1120 288
WIRE 176 304 176 208
WIRE 1184 304 1184 288
WIRE 1408 304 1408 240
WIRE 384 320 384 224
WIRE 1184 320 1184 304
WIRE 432 336 432 192
WIRE 608 336 608 304
WIRE 608 336 432 336
WIRE 688 336 688 320
WIRE 688 336 608 336
WIRE 880 336 880 304
WIRE 1184 384 1184 368
WIRE 1248 384 1184 384
WIRE 1408 384 1248 384
WIRE 0 416 0 336
WIRE 256 416 256 256
WIRE 256 416 0 416
WIRE 496 416 496 240
WIRE 496 416 256 416
WIRE 784 416 784 128
WIRE 784 416 496 416
WIRE 1248 432 1248 384
FLAG -112 224 0
FLAG 176 304 0
FLAG 384 320 0
FLAG 880 336 0
FLAG 1248 432 0
SYMBOL voltage 0 80 R0
WINDOW 123 0 0 Left 2
WINDOW 39 0 0 Left 2
SYMATTR InstName V1
SYMATTR Value 9
SYMBOL voltage 0 240 R0
WINDOW 123 0 0 Left 2
WINDOW 39 0 0 Left 2
SYMATTR InstName V2
SYMATTR Value 9
SYMBOL cap 592 240 R0
SYMATTR InstName C1
SYMATTR Value 1µ
SYMBOL res 672 224 R0
SYMATTR InstName R1
SYMATTR Value 1meg
SYMBOL res 256 48 R90
WINDOW 0 0 56 VBottom 2
WINDOW 3 32 56 VTop 2
SYMATTR InstName R2
SYMATTR Value 250k
SYMBOL res 256 128 R90
WINDOW 0 0 56 VBottom 2
WINDOW 3 32 56 VTop 2
SYMATTR InstName R3
SYMATTR Value 300k
SYMBOL res 432 128 R90
WINDOW 0 0 56 VBottom 2
WINDOW 3 32 56 VTop 2
SYMATTR InstName R4
SYMATTR Value 500
SYMBOL Misc\\signal 880 208 R0
WINDOW 123 0 0 Left 2
WINDOW 39 0 0 Left 2
SYMATTR InstName V3
SYMATTR Value SINE(0 4 50)
SYMBOL npn 1344 144 R0
SYMATTR InstName Q1
SYMATTR Value BC547C
SYMBOL res 1168 176 R90
WINDOW 0 0 56 VBottom 2
WINDOW 3 32 56 VTop 2
SYMATTR InstName R6
SYMATTR Value 120
SYMBOL res 1424 400 R180
WINDOW 0 36 76 Left 2
WINDOW 3 36 40 Left 2
SYMATTR InstName R7
SYMATTR Value 50
SYMBOL zener 1200 368 R180
WINDOW 0 24 64 Left 2
WINDOW 3 24 0 Left 2
SYMATTR InstName D1
SYMATTR Value BZX84C6V2L
SYMBOL LED 1392 48 R0
SYMATTR InstName D2
SYMATTR Value LUW-W5AP
SYMBOL cap 1120 272 R90
WINDOW 0 0 32 VBottom 2
WINDOW 3 32 32 VTop 2
SYMATTR InstName C2
SYMATTR Value 10n
SYMBOL Opamps\\TL074 256 160 R0
SYMATTR InstName U1
SYMBOL Opamps\\TL074 496 144 R0
SYMATTR InstName U2
SYMBOL Opamps\\TL074 784 32 R0
SYMATTR InstName U3
TEXT -368 424 Left 2 !.tran 0.08
