Version 4
SHEET 1 1876 964
WIRE 720 544 480 544
WIRE 720 592 720 544
WIRE 480 608 480 544
WIRE 720 704 720 672
WIRE 896 704 720 704
WIRE 928 704 896 704
WIRE 1056 704 1008 704
WIRE 1232 704 1136 704
WIRE 896 720 896 704
WIRE 1232 720 1232 704
WIRE 720 736 720 704
WIRE 1232 816 1232 784
WIRE 480 944 480 688
WIRE 720 944 720 816
WIRE 896 944 896 816
WIRE 1232 944 1232 880
FLAG 1232 944 0
FLAG 896 944 0
FLAG 720 944 0
FLAG 480 944 0
SYMBOL Misc\\signal 480 592 R0
WINDOW 123 0 0 Left 2
WINDOW 39 0 0 Left 2
SYMATTR InstName V3
SYMATTR Value SINE(0 {U} 50)
SYMBOL res 704 576 R0
SYMATTR InstName R8
SYMATTR Value 280MegR
SYMBOL res 704 720 R0
SYMATTR InstName R9
SYMATTR Value 20kR
SYMBOL res 1024 688 R90
WINDOW 0 0 56 VBottom 2
WINDOW 3 32 56 VTop 2
SYMATTR InstName R11
SYMATTR Value 1000R
SYMBOL res 1152 688 R90
WINDOW 0 0 56 VBottom 2
WINDOW 3 32 56 VTop 2
SYMATTR InstName R12
SYMATTR Value 1000R
SYMBOL zener 1216 720 R0
SYMATTR InstName D2
SYMATTR Value EDZV7_5B
SYMBOL zener 1248 880 R180
WINDOW 0 24 64 Left 2
WINDOW 3 24 0 Left 2
SYMATTR InstName D4
SYMATTR Value EDZV7_5B
SYMBOL Misc\\neonbulb 896 768 R0
SYMATTR InstName U4
TEXT -368 424 Left 2 !.tran 0 0.022 0.002
TEXT -216 576 Left 2 !.step param U 10k 100k 10k
